9 'GENROU' 1  9.404200  0.039900  1.081200  0.044300  3.191500  0.000000  1.823300
1.738900  0.208800  0.580900  0.152600  0.113100  0.034300  0.303600  /
9 'SEXS' 1  0.1  10  100  0.05  -4  5  /
9 'TGOV1' 1  0.05  0.1586  1  0  2.5  8.33333  0  /
16 'GENROU' 1  5.183800  0.055100  1.224900  0.048700  3.598600  0.000000  1.525600
1.461700  0.248100  0.400900  0.180500  0.134400  0.115200  0.465500  /
16 'SEXS' 1  0.1  10  200  0.02  -4  5  /
16 'TGOV1' 1  0.05  0.5  1  0  3  10  0  /
17 'GENROU' 1  7.474500  0.037400  0.810800  0.075600  2.975200  0.000000  1.970600
1.876100  0.214900  0.231300  0.156900  0.116400  0.094800  0.424700  /
17 'SEXS' 1  0.125  10  100  0.05  -4  5  /
17 'TGOV1' 1  0.05  0.5  1  0  2.1  7  0  /
18 'GENROU' 1  6.241900  0.056200  0.561000  0.046600  2.597200  0.000000  2.233800
2.121000  0.190400  0.395800  0.139500  0.103100  0.024900  0.284800  /
18 'SEXS' 1  0.1  10  100  0.1  -4  5  /
18 'TGOV1' 1  0.05  0.5  1  0  2.1  6.3  0  /
49 'GENROU' 1  6.575800  0.055900  0.511100  0.062100  1.413900  0.000000  1.498900
1.436900  0.238900  0.502600  0.173900  0.129400  0.048300  0.331700  /
49 'SEXS' 1  0.1  10  115.43  0.1  -4  5  /
49 'TGOV1' 1  0.05  0.5  1  0  2.1  7  0  /
50 'GENROU' 1  5.056000  0.051600  0.908000  0.040800  5.788600  0.000000  1.724200
1.646600  0.201900  0.446200  0.147700  0.109300  0.189800  0.614700  /
50 'SEXS' 1  0.1  10  100  0.02  -4  5  /
50 'TGOV1' 1  0.05  0.4154  1  0  2.1  7  0  /
63 'GENROU' 1  6.821300  0.052100  1.948100  0.069300  1.074400  0.000000  2.440400
2.240700  0.319000  0.592900  0.212200  0.192800  0.176000  0.528500  /
63 'SEXS' 1  0.1  8  100  0.02  -4  5  /
63 'GAST' 1  0.05  0.4  0.1  3  1  2  1  0  0  /
71 'GENROU' 1  4.010800  0.045500  1.403100  0.050700  2.002600  0.000000  1.233100
1.189500  0.183200  0.398100  0.134400  0.099200  0.046600  0.328200  /
71 'SEXS' 1  0.1  8  250  0.05  -4  5  /
71 'HYGOV' 1  0.05  0.2439  4.0833  0.05  0.5  0.07  1  0  0.6585  1.2  1  0.08  /
72 'GENROU' 1  4.684900  0.027900  0.858400  0.064000  8.959700  0.000000  1.985800
1.890200  0.219000  0.443000  0.159800  0.118600  0.029200  0.293500  /
72 'SEXS' 1  0.125  10  147.677  0.05  -4  5  /
72 'HYGOV' 1  0.07  0.5201  6.3094  0.05  0.5  0.167  1  0  0.6136  1.2  1  0.08  /
73 'GENROU' 1  7.067000  0.020800  1.187700  0.047800  2.838500  0.000000  1.062200
1.030400  0.141000  0.358900  0.104400  0.076300  0.098900  0.432900  /
73 'SEXS' 1  0.1  10  100  0.05  -4  5  /
73 'HYGOV' 1  0.05  0.6187  1.0158  0.4  0.5  0.167  1  0  0.5035  1.25  0.2  0.08  /
82 'GENROU' 1  4.287000  0.033000  0.884500  0.064300  2.700400  0.000000  2.057200
1.956600  0.313900  0.514700  0.227200  0.170100  0.159500  0.554100  /
82 'SEXS' 1  0.125  10  100  0.02  -4  5  /
82 'HYGOV' 1  0.05  0.5278  1.7431  0.4  0.5  0.167  1  0  0.3833  1.25  0.5  0.08  /
125 'GENROU' 1  6.030800  0.035000  1.094600  0.044500  1.665800  0.000000  1.749700
1.670400  0.232000  0.460700  0.169100  0.125700  0.190400  0.615900  /
125 'SEXS' 1  0.1  10  156.327  0.02  -4  5  /
125 'HYGOV' 1  0.05  0.8365  4.974  0.4  0.33  0.167  1  0  0.7405  1.25  0  0.08  /
126 'GENROU' 1  9.797500  0.052600  1.108100  0.060600  6.279000  0.000000  2.204200
2.093500  0.350500  0.454500  0.253200  0.190000  0.121400  0.477900  /
126 'SEXS' 1  0.1  10  182.487  0.1  -4  5  /
126 'HYGOV' 1  0.04  0.367  3.451  0.05  0.5  0.167  1  0  0.9905  1.2  0  0.08  /
127 'GENROU' 1  6.906900  0.046300  0.825300  0.060600  5.891100  0.000000  2.142400
2.036000  0.417500  0.431900  0.300800  0.226400  0.032900  0.300900  /
127 'SEXS' 1  0.125  8  186.246  0.02  -4  5  /
127 'HYGOV' 1  0.05  0.1817  3.2561  0.2  0.5  0.167  1  0  0.2281  1.2  0  0.08  /
128 'GENROU' 1  6.244900  0.032400  1.035800  0.066300  6.281500  0.000000  2.332500
2.212900  0.246600  0.388800  0.179400  0.133600  0.047100  0.329200  /
128 'SEXS' 1  0.1  8  250  0.02  -4  5  /
128 'HYGOV' 1  0.05  0.3873  2.9479  0.05  0.5  0.07  1  0  0.2417  1.2  1  0.08  /
144 'GENROU' 1  7.865900  0.032500  1.353300  0.065200  2.851100  0.000000  1.651000
1.578500  0.224600  0.206200  0.163800  0.121700  0.067900  0.370900  /
144 'SEXS' 1  0.1  8  100  0.05  -4  5  /
144 'TGOV1' 1  0.05  0.4045  1  0  3  10  0  /
144 'IEEEST' 1  1  0  1.013  0.013  0  0  1.013  0.113  10  0.02  0  0  1.65  1.65  3  0.1  -0.1  0  0  /
145 'GENROU' 1  8.966500  0.037200  0.984700  0.050000  3.774300  0.000000  1.990000
1.894100  0.358600  0.438500  0.259000  0.194400  0.046000  0.327100  /
145 'SEXS' 1  0.1  10  100  0.02  -4  5  /
145 'TGOV1' 1  0.05  0.5  1  0  2.1  7  0  /
145 'IEEEST' 1  1  0  1.013  0.013  0  0  1.013  0.113  10  0.02  0  0  1.65  1.65  3  0.1  -0.1  0  0  /
167 'GENROU' 1  5.961100  0.022900  1.414600  0.059500  3.212000  0.000000  1.420800
1.364200  0.151300  0.235400  0.111800  0.081900  0.120600  0.476400  /
167 'SEXS' 1  0.1  8  200  0.05  -4  5  /
167 'HYGOV' 1  0.07  0.9293  4.693  0.2  0.5  0.2  1  0  0.1758  1.2  0.5  0.08  /
168 'GENROU' 1  6.590700  0.020500  1.422100  0.064700  2.373300  0.000000  1.788400
1.706400  0.156800  0.200100  0.115600  0.084800  0.186200  0.607400  /
168 'SEXS' 1  0.1  10  100  0.02  -4  5  /
168 'HYGOV' 1  0.04  0.9408  6.2659  0.05  0.33  0.2  1  0  0.8909  1.2  1  0.08  /
169 'GENROU' 1  9.427100  0.026800  0.900500  0.068300  2.059600  0.000000  1.559900
1.493700  0.140200  0.426600  0.103900  0.075800  0.071200  0.377500  /
169 'SEXS' 1  0.125  10  250  0.05  -4  5  /
169 'HYGOV' 1  0.04  0.7573  9.8967  0.4  0.5  0.167  1  0  0.1968  1.2  0.5  0.08  /
197 'GENROU' 1  5.545700  0.033400  1.223000  0.045100  2.886600  0.000000  1.883400
1.794900  0.269100  0.254000  0.195400  0.145800  0.133600  0.502400  /
197 'SEXS' 1  0.125  10  200  0.02  -4  5  /
197 'TGOV1' 1  0.05  0.5  1  0  2.1  7  0  /
198 'GENROU' 1  6.508700  0.020300  1.369900  0.070800  4.996000  0.000000  1.783300
1.701700  0.161800  0.554900  0.119200  0.087500  0.148500  0.532200  /
198 'SEXS' 1  0.1  10  100  0.02  -4  5  /
198 'TGOV1' 1  0.05  0.5  1  0  3  10  0  /
222 'GENROU' 1  5.761300  0.035800  0.959400  0.079600  1.825700  0.000000  1.515700
1.452600  0.292200  0.413600  0.211800  0.158400  0.066900  0.368900  /
222 'SEXS' 1  0.1  10  200  0.02  -4  5  /
222 'HYGOV' 1  0.05  0.1393  4.3176  0.04  0.5  0.167  1  0  0.956  1.2  0.5  0.08  /
223 'GENROU' 1  9.400400  0.054600  0.744300  0.067500  8.888200  0.000000  1.661000
1.587800  0.286100  0.546900  0.207500  0.155100  0.040800  0.316700  /
223 'SEXS' 1  0.1  8  250  0.02  -4  5  /
223 'HYGOV' 1  0.05  0.7075  2.6068  0.04  0.33  0.167  1  0  0.4345  1.25  0.2  0.08  /
224 'GENROU' 1  6.812100  0.032800  1.059600  0.050800  3.184600  0.000000  2.010200
1.912900  0.274800  0.369200  0.199500  0.148900  0.065500  0.366200  /
224 'SEXS' 1  0.1  10  100  0.05  -4  5  /
224 'HYGOV' 1  0.04  0.1109  6.9901  0.05  0.5  0.1  1  0  0.133  1.2  1  0.08  /
225 'GENROU' 1  6.225600  0.022500  1.211900  0.049800  3.620300  0.000000  1.590800
1.522500  0.168600  0.325500  0.124000  0.091200  0.030300  0.295700  /
225 'SEXS' 1  0.1  8  200  0.02  -4  5  /
225 'HYGOV' 1  0.05  0.3613  5.8895  0.4  0.5  0.1  1  0  0.3577  1.2  0.2  0.08  /
231 'GENROU' 1  5.643700  0.057900  1.320100  0.047800  6.500200  0.000000  2.448300
2.320700  0.264800  0.388700  0.192400  0.143500  0.108100  0.451200  /
231 'SEXS' 1  0.125  8  100  0.1  -4  5  /
231 'TGOV1' 1  0.05  0.2  1  0  2.1  7  0  /
248 'GENROU' 1  6.695500  0.040300  1.256600  0.117300  6.594900  0.000000  2.105600
1.970500  0.385700  0.643300  0.247600  0.183500  0.147800  0.443800  /
248 'SEXS' 1  0.1  10  173.996  0.05  -4  5  /
248 'GAST' 1  0.05  0.1  0.1  5  1  1  1  0  0  /
249 'GENROU' 1  6.204600  0.048800  1.775300  0.100800  4.661500  0.000000  1.528500
1.504800  0.284200  0.496400  0.193700  0.084700  0.155900  0.468200  /
249 'SEXS' 1  0.1  10  158.077  0.02  -4  5  /
249 'GAST' 1  0.05  0.4  0.1  3  1  2  1  0  0  /
250 'GENROU' 1  7.778100  0.049200  0.681700  0.089900  6.000000  0.000000  1.581300
1.547400  0.208100  0.252200  0.153300  0.087900  0.111300  0.334200  /
250 'SEXS' 1  0.1  10  250  0.05  -4  5  /
250 'GAST' 1  0.05  0.4  0.1  3  1  2  1  0  0  /
254 'GENROU' 1  5.405400  0.052400  0.932400  0.050700  4.373200  0.000000  2.433900
2.307300  0.232600  0.594600  0.169500  0.126000  0.056600  0.348400  /
254 'SEXS' 1  0.1  10  100  0.05  -4  5  /
254 'TGOV1' 1  0.05  0.3036  1  0  3  10  0  /
255 'GENROU' 1  8.558900  0.028800  1.438300  0.071400  9.099500  0.000000  1.831800
1.746800  0.236500  0.452500  0.172300  0.128100  0.187100  0.609200  /
255 'SEXS' 1  0.1  10  100  0.05  -4  5  /
255 'TGOV1' 1  0.05  0.5  1  0  2.1  6.3  0  /
256 'GENROU' 1  9.346400  0.044100  0.728000  0.053800  5.897100  0.000000  1.821900
1.737600  0.314100  0.341200  0.227400  0.170300  0.181700  0.598600  /
256 'SEXS' 1  0.125  10  200  0.02  -4  5  /
256 'TGOV1' 1  0.05  0.5  1  0  2.5  8.33333  0  /
257 'GENROU' 1  9.313300  0.052600  1.235600  0.040400  9.474000  0.000000  1.169000
1.129800  0.150000  0.292000  0.110800  0.081100  0.128700  0.492500  /
257 'SEXS' 1  0.125  8  200  0.05  -4  5  /
257 'TGOV1' 1  0.05  0.5  1  0  2.1  6.3  0  /
258 'GENROU' 1  4.476000  0.027100  0.527300  0.064100  2.531100  0.000000  1.285700
1.238400  0.153700  0.308300  0.113400  0.083100  0.196900  0.628900  /
258 'SEXS' 1  0.1  8  250  0.05  -4  5  /
258 'TGOV1' 1  0.05  0.5  1  0  2.1  7  0  /
264 'GENROU' 1  6.702600  0.053000  1.504500  0.136500  2.091100  0.000000  2.372600
2.185900  0.271200  0.504200  0.186800  0.057500  0.182900  0.549200  /
264 'SEXS' 1  0.1  10  104.313  0.02  -4  5  /
264 'GAST' 1  0.05  0.5  1  3  1  2  1  0  0  /
265 'GENROU' 1  4.765000  0.049100  1.245900  0.116000  7.683100  0.000000  2.386900
2.197500  0.388600  0.767300  0.249100  0.061200  0.177700  0.533600  /
265 'SEXS' 1  0.125  10  100  0.02  -4  5  /
265 'GAST' 1  0.05  0.5  1  3  1  1  1  0  0  /
275 'GENROU' 1  8.963100  0.046400  1.090500  0.100300  3.832400  0.000000  2.424500
2.227900  0.242500  0.460500  0.171600  0.089900  0.153400  0.460700  /
275 'SEXS' 1  0.1  10  147.808  0.02  -4  5  /
275 'GAST' 1  0.05  0.4  1  3  1  2  1  0  0  /
301 'GENROU' 1  4.385900  0.045900  1.324400  0.062100  9.597200  0.000000  1.714500
1.637600  0.297100  0.460100  0.215300  0.161000  0.043000  0.321000  /
301 'SEXS' 1  0.125  10  100  0.05  -4  5  /
301 'TGOV1' 1  0.05  0.4983  1  0  2.5  8.33333  0  /
302 'GENROU' 1  5.981500  0.049500  1.381100  0.053600  2.481400  0.000000  1.362800
1.310300  0.240700  0.447300  0.175200  0.130400  0.034900  0.304800  /
302 'SEXS' 1  0.1  10  100  0.02  -4  5  /
302 'TGOV1' 1  0.05  0.429  1  0  3  10  0  /
305 'GENROU' 1  7.863200  0.047500  0.604200  0.073600  1.231500  0.000000  2.199500
2.089100  0.226100  0.224300  0.164900  0.122500  0.089300  0.413700  /
305 'SEXS' 1  0.1  8  250  0.05  -4  5  /
305 'HYGOV' 1  0.05  0.9697  5.0222  0.05  0.33  0.1  1  0  0.1944  1.2  0.5  0.08  /
306 'GENROU' 1  4.231300  0.039000  0.901900  0.047400  7.208100  0.000000  2.073900
1.972200  0.295800  0.442000  0.214400  0.160300  0.022400  0.279900  /
306 'SEXS' 1  0.125  10  141.612  0.05  -4  5  /
306 'HYGOV' 1  0.07  0.9511  4.3102  0.4  0.5  0.167  1  0  0.6658  1.25  0  0.08  /
319 'GENROU' 1  5.052900  0.053900  0.848900  0.075000  7.235600  0.000000  1.526100
1.462200  0.217200  0.407300  0.158600  0.117600  0.077300  0.389700  /
319 'SEXS' 1  0.1  10  250  0.1  -4  5  /
319 'HYGOV' 1  0.07  0.3099  5.0823  0.05  0.33  0.1  1  0  0.9813  1.2  0  0.08  /
350 'GENROU' 1  8.759900  0.047700  0.932900  0.057700  5.654900  0.000000  1.034800
1.004900  0.155800  0.230800  0.114900  0.084300  0.118400  0.471900  /
350 'SEXS' 1  0.125  10  139.365  0.05  -4  5  /
350 'HYGOV' 1  0.05  0.643  9.2672  0.05  0.33  0.167  1  0  0.2534  1.25  0.2  0.08  /
351 'GENROU' 1  7.135200  0.045500  0.641600  0.067500  3.550300  0.000000  1.337700
1.286900  0.130100  0.406000  0.096700  0.070300  0.146600  0.528300  /
351 'SEXS' 1  0.1  10  100  0.05  -4  5  /
351 'HYGOV' 1  0.05  0.2236  5.507  0.05  0.33  0.07  1  0  0.349  1.25  1  0.08  /
352 'GENROU' 1  7.255800  0.047200  1.479200  0.065400  2.535400  0.000000  1.832700
1.747600  0.276800  0.535000  0.200900  0.150000  0.185100  0.605200  /
352 'SEXS' 1  0.1  10  250  0.05  -4  5  /
352 'HYGOV' 1  0.05  0.3835  9.2764  0.05  0.33  0.167  1  0  0.4702  1.2  0  0.08  /
353 'GENROU' 1  8.961400  0.031300  0.857000  0.048600  6.323000  0.000000  2.321000
2.202200  0.393900  0.409600  0.284100  0.213600  0.065200  0.365400  /
353 'SEXS' 1  0.1  8  100  0.05  -4  5  /
353 'HYGOV' 1  0.04  0.5341  9.2592  0.4  0.5  0.167  1  0  0.4959  1.2  1  0.08  /
361 'GENROU' 1  4.038300  0.059300  1.847700  0.121200  5.303400  0.000000  1.545800
1.518800  0.260300  0.460400  0.181000  0.153200  0.163000  0.489500  /
361 'SEXS' 1  0.1  10  151.255  0.02  -4  5  /
361 'GAST' 1  0.05  0.4  0.48  3  1  2  1  0  0  /
362 'GENROU' 1  6.326400  0.049500  1.974400  0.086200  1.413700  0.000000  2.190400
2.038900  0.348700  0.642600  0.227900  0.123400  0.191600  0.575400  /
362 'SEXS' 1  0.1  10  250  0.1  -4  5  /
362 'GAST' 1  0.05  0.4  0.48  3  1  2  1  0  0  /
363 'GENROU' 1  7.081600  0.046400  0.846900  0.072300  3.779800  0.000000  2.197400
2.044600  0.281000  0.617700  0.192000  0.090100  0.176300  0.529400  /
363 'SEXS' 1  0.125  10  100  0.02  -4  5  /
363 'GAST' 1  0.05  0.4  1  3  1  2  1  0  0  /
388 'GENROU' 1  7.295100  0.056400  1.294400  0.105800  1.935300  0.000000  2.295900
2.124100  0.259800  0.379500  0.180800  0.169800  0.134000  0.402400  /
388 'SEXS' 1  0.1  10  250  0.1  -4  5  /
388 'GAST' 1  0.05  0.4  0.48  3  1  2  1  0  0  /
389 'GENROU' 1  5.651700  0.057600  1.554800  0.070200  8.175100  0.000000  2.447400
2.246300  0.385200  0.736500  0.247300  0.171400  0.147000  0.441400  /
389 'SEXS' 1  0.1  10  100  0.1  -4  5  /
389 'GAST' 1  0.05  0.4  0.1  5  1  2  1  0  0  /
390 'GENROU' 1  8.264000  0.059400  1.403100  0.090900  5.152100  0.000000  2.140900
1.999000  0.241500  0.424900  0.171000  0.156000  0.194500  0.584100  /
390 'SEXS' 1  0.125  10  250  0.02  -4  5  /
390 'GAST' 1  0.05  0.4  0.1  3  1  2  1  0  0  /
391 'GENROU' 1  4.327000  0.058400  1.984600  0.087300  5.151400  0.000000  2.499800
2.288600  0.389700  0.488100  0.249700  0.059400  0.130300  0.391300  /
391 'SEXS' 1  0.1  10  100  0.02  -4  5  /
391 'GAST' 1  0.05  0.4  0.48  3  1  2  1  0  0  /
392 'GENROU' 1  7.404500  0.057200  1.953600  0.135000  3.809600  0.000000  1.555200
1.526400  0.263000  0.385000  0.182400  0.053700  0.181500  0.545000  /
392 'SEXS' 1  0.1  10  180.452  0.02  -4  5  /
392 'GAST' 1  0.05  0.4  0.1  3  1  1  1  0  0  /
393 'GENROU' 1  7.055300  0.054800  1.376200  0.082800  3.349600  0.000000  2.316700
2.140800  0.278900  0.573800  0.190900  0.108400  0.122100  0.366700  /
393 'SEXS' 1  0.1  8  168.44  0.05  -4  5  /
393 'GAST' 1  0.05  0.5  0.1  3  1  1  1  0  0  /
394 'GENROU' 1  9.317300  0.049500  1.942300  0.125500  5.623000  0.000000  2.247800
2.085300  0.391100  0.507300  0.250400  0.102600  0.120000  0.360400  /
394 'SEXS' 1  0.1  8  100  0.02  -4  5  /
394 'GAST' 1  0.04  0.4  0.1  3  1  2  1  0  0  /
395 'GENROU' 1  7.587100  0.055200  0.803900  0.118800  8.601600  0.000000  1.709400
1.650800  0.237200  0.402100  0.168700  0.089300  0.138300  0.415300  /
395 'SEXS' 1  0.125  8  100  0.1  -4  5  /
395 'GAST' 1  0.05  0.5  1  3  1  2  1  0  0  /
396 'GENROU' 1  5.165000  0.048100  1.155800  0.143500  8.190300  0.000000  2.461500
2.257700  0.286800  0.420800  0.195100  0.153500  0.114800  0.344700  /
396 'SEXS' 1  0.1  8  137.583  0.05  -4  5  /
396 'GAST' 1  0.05  0.4  0.48  3  1  2  1  0  0  /
409 'GENROU' 1  9.113900  0.050200  1.145300  0.120200  7.032800  0.000000  1.524900
1.502000  0.360200  0.432600  0.234000  0.063200  0.101300  0.304200  /
409 'SEXS' 1  0.1  10  100  0.1  -4  5  /
409 'GAST' 1  0.04  0.4  0.48  3  1  2  1  0  0  /
410 'GENROU' 1  4.891100  0.048000  1.898100  0.127700  8.815800  0.000000  1.833000
1.750600  0.269100  0.505500  0.185700  0.175900  0.159700  0.479600  /
410 'SEXS' 1  0.1  10  132.771  0.05  -4  5  /
410 'GAST' 1  0.05  0.4  0.1  3  1  0  1  0  0  /
411 'GENROU' 1  8.637300  0.053300  1.597800  0.070600  3.612700  0.000000  1.791500
1.717100  0.230500  0.369000  0.165200  0.091300  0.161000  0.483500  /
411 'SEXS' 1  0.1  10  100  0.02  -4  5  /
411 'GAST' 1  0.05  0.4  0.1  3  1  2  1  0  0  /
412 'GENROU' 1  6.368600  0.048000  1.450900  0.139500  6.533800  0.000000  1.809500
1.731600  0.298300  0.615600  0.201200  0.155000  0.170200  0.511100  /
412 'SEXS' 1  0.1  10  101.739  0.02  -4  5  /
412 'GAST' 1  0.05  0.4  0.1  3  1  2  1  0  0  /
413 'GENROU' 1  5.191300  0.052000  1.631000  0.119900  6.470400  0.000000  1.716600
1.656600  0.373400  0.605900  0.241000  0.163000  0.176100  0.528800  /
413 'SEXS' 1  0.1  10  107.521  0.05  -4  5  /
413 'GAST' 1  0.05  0.4  0.1  3  1  2  1  0  0  /
414 'GENROU' 1  9.240000  0.042500  0.959600  0.131500  4.362800  0.000000  2.062200
1.935500  0.290800  0.421900  0.197200  0.110100  0.185400  0.556800  /
414 'SEXS' 1  0.125  10  200  0.02  -4  5  /
414 'GAST' 1  0.05  0.4  0.48  3  1  0  1  0  0  /
430 'GENROU' 1  9.287200  0.032200  1.226000  0.055500  1.784600  0.000000  2.326400
2.207200  0.200800  0.248300  0.146900  0.108700  0.075100  0.385300  /
430 'SEXS' 1  0.125  8  100  0.02  -4  5  /
430 'HYGOV' 1  0.05  0.8961  4.0405  0.04  0.33  0.1  1  0  0.1955  1.2  1  0.08  /
431 'GENROU' 1  5.933300  0.027400  0.678900  0.070800  1.379300  0.000000  2.051000
1.950900  0.388900  0.388400  0.280500  0.210900  0.096900  0.428900  /
431 'SEXS' 1  0.1  10  100  0.02  -4  5  /
431 'HYGOV' 1  0.05  0.1585  4.4456  0.2  0.5  0.07  1  0  0.7068  1.2  1  0.08  /
432 'GENROU' 1  8.735500  0.031500  1.018100  0.055500  2.297800  0.000000  2.043800
1.944200  0.285900  0.535900  0.207400  0.154900  0.092900  0.420900  /
432 'SEXS' 1  0.1  8  100  0.02  -4  5  /
432 'HYGOV' 1  0.05  0.9286  1.6918  0.05  0.33  0.167  1  0  0.3893  1.25  0  0.08  /
433 'GENROU' 1  7.456000  0.045800  0.585100  0.041300  4.918700  0.000000  1.314400
1.265200  0.166700  0.434100  0.122700  0.090200  0.144800  0.524600  /
433 'SEXS' 1  0.125  10  198.735  0.02  -4  5  /
433 'HYGOV' 1  0.05  0.1113  8.6021  0.05  0.5  0.167  1  0  0.8322  1.2  0  0.08  /
434 'GENROU' 1  5.498300  0.050100  1.401000  0.073300  6.025800  0.000000  1.293600
1.245800  0.195900  0.319100  0.143400  0.106100  0.188600  0.612200  /
434 'SEXS' 1  0.1  10  200  0.02  -4  5  /
434 'HYGOV' 1  0.07  0.067  1.3751  0.05  0.5  0.167  1  0  0.3886  1.25  0  0.08  /
435 'GENROU' 1  8.345300  0.032100  1.300100  0.070600  2.981300  0.000000  2.024900
1.926600  0.265900  0.410100  0.193100  0.144100  0.048800  0.332700  /
435 'SEXS' 1  0.1  8  100  0.05  -4  5  /
435 'HYGOV' 1  0.07  0.9257  1.8712  0.05  0.33  0.167  1  0  0.446  1.2  0  0.08  /
436 'GENROU' 1  8.854200  0.045600  0.857600  0.073500  1.753700  0.000000  1.886600
1.797800  0.180000  0.535300  0.132100  0.097400  0.074200  0.383400  /
436 'SEXS' 1  0.1  10  100  0.1  -4  5  /
436 'HYGOV' 1  0.05  0.5144  2.7288  0.4  0.5  0.2  1  0  0.6132  1.2  0  0.08  /
437 'GENROU' 1  4.820000  0.036000  0.525700  0.078700  5.495700  0.000000  2.380700
2.257800  0.470400  0.223400  0.178700  0.178700  0.129400  0.494000  /
437 'SEXS' 1  0.125  10  100  0.05  -4  5  /
437 'HYGOV' 1  0.05  0.1116  1.4608  0.05  0.33  0.2  1  0  0.2939  1.2  0  0.08  /
438 'GENROU' 1  5.213900  0.041800  1.032800  0.043300  3.430100  0.000000  2.036600
1.937400  0.354800  0.567300  0.256300  0.192300  0.163100  0.561400  /
438 'SEXS' 1  0.1  10  250  0.05  -4  5  /
438 'HYGOV' 1  0.05  0.4746  1.6997  0.05  0.5  0.07  1  0  0.363  1.25  1  0.08  /
439 'GENROU' 1  9.236300  0.038200  1.269800  0.051700  3.277400  0.000000  1.835100
1.749900  0.326100  0.404600  0.235900  0.176800  0.177100  0.589300  /
439 'SEXS' 1  0.1  10  250  0.02  -4  5  /
439 'HYGOV' 1  0.05  0.2862  4.4102  0.05  0.33  0.167  1  0  0.8155  1.2  0.2  0.08  /
442 'GENROU' 1  4.465000  0.058500  0.768100  0.112400  5.579000  0.000000  2.326800
2.149000  0.384000  0.558400  0.246600  0.077100  0.147600  0.443200  /
442 'SEXS' 1  0.125  10  250  0.02  -4  5  /
442 'GAST' 1  0.05  0.4  0.1  3  1  2  1  0  0  /
443 'GENROU' 1  9.286600  0.056200  1.787800  0.133800  7.297500  0.000000  1.664800
1.614800  0.251200  0.529800  0.176200  0.111800  0.160500  0.482000  /
443 'SEXS' 1  0.1  8  200  0.05  -4  5  /
443 'GAST' 1  0.04  0.1  0.1  3  1  1  1  0  0  /
444 'GENROU' 1  6.850900  0.045500  0.679800  0.113100  2.005900  0.000000  2.348000
2.166100  0.389500  0.743300  0.249600  0.173600  0.133600  0.401200  /
444 'SEXS' 1  0.125  8  250  0.1  -4  5  /
444 'GAST' 1  0.05  0.4  1  3  1  2  1  0  0  /
455 'GENROU' 1  9.613700  0.052600  1.627700  0.092900  7.166200  0.000000  1.635100
1.590800  0.309000  0.525200  0.206900  0.067700  0.129000  0.387400  /
455 'SEXS' 1  0.1  10  132.434  0.02  -4  5  /
455 'GAST' 1  0.05  0.5  1  3  1  2  1  0  0  /
456 'GENROU' 1  9.128800  0.055500  1.160600  0.085200  6.000000  0.000000  1.944000
1.840100  0.361600  0.625400  0.234800  0.084600  0.176800  0.530900  /
456 'SEXS' 1  0.125  10  139.335  0.05  -4  5  /
456 'GAST' 1  0.05  0.4  0.1  3  1  1  1  0  0  /
458 'GENROU' 1  6.404700  0.053100  0.858400  0.042900  5.917300  0.000000  2.279400
2.163500  0.200500  0.644300  0.146700  0.108500  0.052400  0.340000  /
458 'SEXS' 1  0.1  8  250  0.05  -4  5  /
458 'TGOV1' 1  0.05  0.5  1  0  3  9  0  /
463 'GENROU' 1  4.025600  0.030400  1.428300  0.055100  5.097700  0.000000  2.395100
2.271200  0.294300  0.562800  0.213300  0.159500  0.088300  0.411700  /
463 'SEXS' 1  0.125  8  100  0.1  -4  5  /
463 'TGOV1' 1  0.05  0.2021  1  0  3  10  0  /
480 'GENROU' 1  4.037300  0.043100  1.105100  0.042000  8.307100  0.000000  2.029700
1.931000  0.320400  0.251600  0.231800  0.173700  0.071600  0.378300  /
480 'SEXS' 1  0.1  10  250  0.05  -4  5  /
480 'HYGOV' 1  0.05  0.7104  2.8265  0.05  0.33  0.167  1  0  0.6448  1.2  1  0.08  /
481 'GENROU' 1  4.791200  0.033600  0.723500  0.050900  3.019900  0.000000  2.404800
2.280200  0.436000  0.552400  0.313900  0.236400  0.102000  0.439100  /
481 'SEXS' 1  0.1  8  100  0.02  -4  5  /
481 'HYGOV' 1  0.07  0.2436  1.6461  0.05  0.33  0.07  1  0  0.2507  1.2  0.2  0.08  /
482 'GENROU' 1  9.956300  0.043800  1.069100  0.047300  2.028900  0.000000  1.853400
1.766900  0.168000  0.387700  0.123600  0.090900  0.179800  0.594700  /
482 'SEXS' 1  0.1  8  250  0.02  -4  5  /
482 'HYGOV' 1  0.05  0.9376  9.4663  0.2  0.33  0.1  1  0  0.1454  1.2  0  0.08  /
483 'GENROU' 1  4.724100  0.048000  1.116500  0.067600  3.560200  0.000000  1.247100
1.202500  0.176100  0.203200  0.129400  0.095300  0.122400  0.479900  /
483 'SEXS' 1  0.125  8  187.272  0.05  -4  5  /
483 'HYGOV' 1  0.07  0.9541  2.6621  0.05  0.33  0.167  1  0  0.9498  1.2  0  0.08  /
484 'GENROU' 1  4.657300  0.059700  0.771200  0.057900  4.938700  0.000000  1.094200
1.060200  0.197900  0.201900  0.144800  0.107100  0.083300  0.401700  /
484 'SEXS' 1  0.1  10  250  0.02  -4  5  /
484 'HYGOV' 1  0.05  0.8192  0.5922  0.4  0.33  0.167  1  0  0.65  1.2  1  0.08  /
494 'GENROU' 1  9.382600  0.024700  1.235300  0.066400  9.438500  0.000000  2.089700
1.986900  0.370900  0.468700  0.267700  0.201100  0.181200  0.597500  /
494 'SEXS' 1  0.125  10  250  0.02  -4  5  /
494 'TGOV1' 1  0.05  0.5  1  0  2.5  8.33333  0  /
497 'GENROU' 1  8.275300  0.042000  1.182900  0.074500  3.373400  0.000000  1.102600
1.068000  0.212400  0.378300  0.155100  0.115000  0.147500  0.530200  /
497 'SEXS' 1  0.1  8  155.995  0.02  -4  5  /
497 'HYGOV' 1  0.05  0.7971  2.7396  0.05  0.5  0.167  1  0  0.3372  1.2  1  0.08  /
498 'GENROU' 1  9.768300  0.022900  0.813000  0.057800  1.230500  0.000000  1.551900
1.486300  0.179500  0.256300  0.131800  0.097200  0.185300  0.605700  /
498 'SEXS' 1  0.1  10  169.207  0.05  -4  5  /
498 'HYGOV' 1  0.05  0.5307  7.5218  0.4  0.5  0.167  1  0  0.6902  1.2  1  0.08  /
