1,'GENROU',1,6.1,0.05,1.0,0.15,3.38,0.0,1.575,1.512,0.2910,0.39,0.1733,0.0787,0,0,/
1,'IEESGO',1,0.1,0.2,0.12,0.25,6.0,20.0,18.94,0.7,0.2,100,-100.0,/
1,'ESDC1A',1,0.0,25.0,0.2,0.0,0.0,1.0,-1.0,-0.05,0.57,0.091,0.35,0.0,2.846,0.0811,3.795,0.3162,/
2,'CIM5BL',22,1,0.0138,0.083,3.0,0.0550,0.053,0.0,0.0,0.0,0.0,0.0,0.0,100.0,0.0,0.4,0.0,1.0,5.0,0.0,0.0,/