1 'GENROU'  1            6.1          0.05         1.0          0.15
                3.38         0.0          1.575        1.512        0.291
                0.39         0.1733       0.0787       0.0       0.0      /