1 'GENROU'  1            7.729        0.047        0.859        0.068
                4.31         0.01          1.9266       1.8442       0.3812
                0.5469       0.2889       0.2443       0.115        0.627     /

2   'GENROU'  1            12.8         0.05         3.9          0.05         
                  0.56          0.001          1.98         1.81         0.208        
                  0.3          0.15         0.1          0.1134       0.5345       /

3   'GENROU'  1            12.8         0.05         3.9          0.05         
                  5.6          0.01          1.98         1.81         0.208        
                  0.3          0.15         0.1          0.1134       0.5345       /
1 'IEESGO'  1            0.1          0.05          0.12         0.25
                6.0          20.0          18.94        0.7          0.2
                100        -100.0                                                /
2 'IEESGO'  1            0.1          0.05          0.12         0.25
                6.0          20.0          20.00        0.7          0.2
                100        -100.0                                                /
3 'IEESGO'  1            0.1          0.05          0.12         0.25
                6.0          20.0          16.00        0.7          0.2
                100        -100.0                                                /
