30, 'GENROU', 1, 10.2, 0.03,  1.5, 0.04,  4.2,  0.0,   1.0,  0.69,  0.31,  0.31, 0.00792, 0.125,   0.0,  0.0,/
31, 'GENROU', 1, 6.56, 0.03,  1.5, 0.04, 3.03,  0.0,  2.95,  2.82, 0.697, 0.697, 0.29779,  0.35,   0.0,  0.0,/
32, 'GENROU', 1,  5.7, 0.03,  1.5, 0.04, 3.58,  0.0, 2.495,  2.37, 0.531, 0.531, 0.02566, 0.304,   0.0,  0.0,/
33, 'GENROU', 1, 5.69, 0.03,  1.5, 0.04, 2.86,  0.0,  2.62,  2.58, 0.436, 0.436, 0.00803, 0.295,   0.0,  0.0,/
34, 'GENROU', 1,  5.4, 0.03, 0.44, 0.04,  2.6,  0.0,   6.7,   6.2,  1.32,  1.32, 0.00571,  0.54,   0.0,  0.0,/
35, 'GENROU', 1,  7.3, 0.03,  0.4, 0.04, 3.48,  0.0,  2.54,  2.41,   0.5,   0.5, 0.46538, 0.224,   0.0,  0.0,/
36, 'GENROU', 1, 5.66, 0.03,  1.5, 0.04, 2.64,  0.0,  2.95,  2.92,  0.49,  0.49, 0.02141, 0.322,   0.0,  0.0,/
37, 'GENROU', 1,  6.7, 0.03, 0.41, 0.04, 2.43,  0.0,   2.9,   2.8,  0.57,  0.57, 0.06076,  0.28,   0.0,  0.0,/
38, 'GENROU', 1, 4.79, 0.03, 1.96, 0.04, 3.45,  0.0, 2.106,  2.05,  0.57,  0.57, 0.01174, 0.298,   0.0,  0.0,/
39, 'GENROU', 1,  7.0, 0.03,  0.7, 0.04, 50.0,  0.0,   0.2,  0.19,  0.06,  0.06, 0.00260,  0.03,   0.0,  0.0,/
30, 'IEESGO', 1,0.1,0.2,0.12,0.25,6.0,20.0,18.94,0.7,0.2,100,-100.0,/
31, 'IEESGO', 1,0.1,0.2,0.12,0.25,6.0,20.0,18.94,0.7,0.2,100,-100.0,/
32, 'IEESGO', 1,0.1,0.2,0.12,0.25,6.0,20.0,18.94,0.7,0.2,100,-100.0,/
33, 'IEESGO', 1,0.1,0.2,0.12,0.25,6.0,20.0,18.94,0.7,0.2,100,-100.0,/
34, 'IEESGO', 1,0.1,0.2,0.12,0.25,6.0,20.0,18.94,0.7,0.2,100,-100.0,/
35, 'IEESGO', 1,0.1,0.2,0.12,0.25,6.0,20.0,18.94,0.7,0.2,100,-100.0,/
36, 'IEESGO', 1,0.1,0.2,0.12,0.25,6.0,20.0,18.94,0.7,0.2,100,-100.0,/
37, 'IEESGO', 1,0.1,0.2,0.12,0.25,6.0,20.0,18.94,0.7,0.2,100,-100.0,/
38, 'IEESGO', 1,0.1,0.2,0.12,0.25,6.0,20.0,18.94,0.7,0.2,100,-100.0,/
39, 'IEESGO', 1,0.1,0.2,0.12,0.25,6.0,20.0,18.94,0.7,0.2,100,-100.0,/